PowerFlow/Se Barro Duro/1429963/1429963.dss


! ===== NOME_SUB =====
!coord_(-15.594060, -56.075838)_nome_SE BARRO DURO 138 KV_ctmt_1429963_cod_10 


! ===== SLACK =====
New Object = Circuit.1429963 basekv = 13.8 pu = 1.0 angle = 0 
New line.10_1429963_ phases = 3 bus1 = SourceBus.1.2.3 bus2 = 0011249942.1.2.3 switch = y

 


! ===== LINECODES =====
New linecode.16512355M-3P nphases=3 BaseFreq=60  r1=0.00136900 x1=0.00026000 c1=0.00000001  Normamps=80.0 Emergamps=112.0

 
New linecode.16512325H-3 nphases=3 BaseFreq=60  r1=0.00061300 x1=0.00033000 c1=0.00000001  Normamps=235.0 Emergamps=329.0

 
New linecode.5281631C-3 nphases=3 BaseFreq=60  r1=0.00073900 x1=0.00030300 c1=0.00000001  Normamps=152.0 Emergamps=181.0

 
New linecode.16512329H-3 nphases=3 BaseFreq=60  r1=0.00097500 x1=0.00034700 c1=0.00000001  Normamps=175.0 Emergamps=245.0

 
New linecode.16512380H-3 nphases=3 BaseFreq=60  r1=0.00061300 x1=0.00033000 c1=0.00000001  Normamps=230.0 Emergamps=322.0

 
New linecode.16512329H-3P nphases=3 BaseFreq=60  r1=0.00097500 x1=0.00034700 c1=0.00000001  Normamps=175.0 Emergamps=245.0

 
New linecode.45225705C-3 nphases=3 BaseFreq=60  r1=0.00073200 x1=0.00030300 c1=0.00000001  Normamps=184.0 Emergamps=258.0

 
New linecode.5281632C-3 nphases=3 BaseFreq=60  r1=0.00019700 x1=0.00025100 c1=0.00000001  Normamps=368.0 Emergamps=400.0

 
New linecode.5281628C-3 nphases=3 BaseFreq=60  r1=0.00024700 x1=0.00025900 c1=0.00000001  Normamps=291.0 Emergamps=291.0

 
New linecode.5281627C-3P nphases=3 BaseFreq=60  r1=0.00099200 x1=0.00011700 c1=0.00000001  Normamps=70.0 Emergamps=70.0

 
New linecode.5281631C-3P nphases=3 BaseFreq=60  r1=0.00073900 x1=0.00030300 c1=0.00000001  Normamps=152.0 Emergamps=181.0

 
New linecode.16512328H-3 nphases=3 BaseFreq=60  r1=0.00030600 x1=0.00038500 c1=0.00000001  Normamps=365.0 Emergamps=511.0

 
New linecode.5281627C-3 nphases=3 BaseFreq=60  r1=0.00099200 x1=0.00011700 c1=0.00000001  Normamps=70.0 Emergamps=70.0

 


! ===== LINHAS =====
New Line.16811549 Phases=3 Bus1=60002605827479504MT.1.2.3 Bus2=60006030827476351MT.1.2.3 Linecode=16512328H-3 Length=46.553 units=m

New Line.16811282 Phases=3 Bus1=60009016827474912MT.1.2.3 Bus2=60010925827473799MT.1.2.3 Linecode=16512328H-3 Length=22.098 units=m

New Line.16811283 Phases=3 Bus1=60006030827476351MT.1.2.3 Bus2=60009016827474912MT.1.2.3 Linecode=16512328H-3 Length=33.147 units=m

New Line.16811286 Phases=3 Bus1=60047276827451343MT.1.2.3 Bus2=60050365827449629MT.1.2.3 Linecode=16512328H-3 Length=35.327 units=m

New Line.13326268 Phases=3 Bus1=60102063827414643MT.1.2.3 Bus2=60099642827411430MT.1.2.3 Linecode=5281628C-3 Length=38.195 units=m

New Line.13326271 Phases=3 Bus1=60078380827388668MT.1.2.3 Bus2=60073504827384271MT.1.2.3 Linecode=5281628C-3 Length=65.657 units=m

New Line.14473414 Phases=3 Bus1=59992727827485061MT.1.2.3 Bus2=59995688827483164MT.1.2.3 Linecode=16512328H-3 Length=35.166 units=m

New Line.14473415 Phases=3 Bus1=59995688827483164MT.1.2.3 Bus2=59997582827482082MT.1.2.3 Linecode=16512328H-3 Length=21.813 units=m

New Line.14473416 Phases=3 Bus1=59995780827483282MT.1.2.3 Bus2=59996645827484392MT.1.2.3 Linecode=5281631C-3 Length=15.569 units=m

New Line.14473417 Phases=3 Bus1=59996645827484392MT.1.2.3 Bus2=59996992827485553MT.1.2.3 Linecode=5281631C-3 Length=12.117 units=m

New Line.16487134 Phases=3 Bus1=59981405827526197MT.1.2.3 Bus2=59984069827525279MT.1.2.3 Linecode=16512329H-3 Length=28.177 units=m

New Line.16487135 Phases=3 Bus1=59977795827514664MT.1.2.3 Bus2=59981035827513552MT.1.2.3 Linecode=16512329H-3 Length=34.255 units=m

New Line.16487139 Phases=3 Bus1=60087307827399129MT.1.2.3 Bus2=60084926827396671MT.1.2.3 Linecode=16512328H-3 Length=34.221 units=m

New Line.16487140 Phases=3 Bus1=60067537827363544MT.1.2.3 Bus2=60068793827365024MT.1.2.3 Linecode=16512329H-3 Length=19.411 units=m

New Line.13377205 Phases=3 Bus1=59972866827516442MT.1.2.3 Bus2=59971283827516874MT.1.2.3 Linecode=16512329H-3 Length=16.409 units=m

New Line.13377209 Phases=3 Bus1=59971283827516874MT.1.2.3 Bus2=59968571827517588MT.1.2.3 Linecode=16512329H-3 Length=28.044 units=m

New Line.13377211 Phases=3 Bus1=59970478827514755MT.1.2.3 Bus2=59969224827511223MT.1.2.3 Linecode=5281627C-3 Length=37.48 units=m

New Line.13377212 Phases=3 Bus1=59971283827516874MT.1.2.3 Bus2=59971353827517937MT.1.2.3 Linecode=5281627C-3 Length=10.653 units=m

New Line.13377213 Phases=3 Bus1=59971283827516874MT.1.2.3 Bus2=59970478827514755MT.1.2.3 Linecode=5281627C-3 Length=22.668 units=m

New Line.13326272 Phases=3 Bus1=60093766827405113MT.1.2.3 Bus2=60088407827398684MT.1.2.3 Linecode=5281628C-3 Length=83.696 units=m

New Line.13326274 Phases=3 Bus1=60089125827422124MT.1.2.3 Bus2=60094942827418493MT.1.2.3 Linecode=5281628C-3 Length=68.572 units=m

New Line.13326275 Phases=3 Bus1=60077958827428300MT.1.2.3 Bus2=60083411827424917MT.1.2.3 Linecode=5281628C-3 Length=60.792 units=m

New Line.15975942 Phases=3 Bus1=60083538827437880MT.1.2.3 Bus2=60080049827440137MT.1.2.3 Linecode=16512329H-3P Length=43.052 units=m

New Line.16101857 Phases=3 Bus1=59945647827514578MT.1.2.3 Bus2=59951134827510710MT.1.2.3 Linecode=16512328H-3 Length=67.133 units=m

New Line.16101858 Phases=3 Bus1=59965733827538501MT.1.2.3 Bus2=59966115827539179MT.1.2.3 Linecode=16512329H-3 Length=7.782 units=m

New Line.16101859 Phases=3 Bus1=59962442827532210MT.1.2.3 Bus2=59964261827531644MT.1.2.3 Linecode=16512329H-3 Length=19.05 units=m

New Line.16101860 Phases=3 Bus1=59984347827526219MT.1.2.3 Bus2=59984875827530267MT.1.2.3 Linecode=16512329H-3 Length=40.823 units=m

New Line.16101861 Phases=3 Bus1=59984612827525109MT.1.2.3 Bus2=59986484827524516MT.1.2.3 Linecode=16512329H-3 Length=19.637 units=m

New Line.16101862 Phases=3 Bus1=60000008827520474MT.1.2.3 Bus2=60000187827521798MT.1.2.3 Linecode=16512329H-3 Length=14.864 units=m

New Line.16101863 Phases=3 Bus1=59978515827524021MT.1.2.3 Bus2=59977614827520806MT.1.2.3 Linecode=16512329H-3 Length=34.886 units=m

New Line.16101864 Phases=3 Bus1=59981035827513552MT.1.2.3 Bus2=59983612827512644MT.1.2.3 Linecode=16512329H-3 Length=27.323 units=m

New Line.16101865 Phases=3 Bus1=59991294827510150MT.1.2.3 Bus2=59991752827509765MT.1.2.3 Linecode=16512329H-3 Length=5.983 units=m

New Line.16101866 Phases=3 Bus1=59990704827509412MT.1.2.3 Bus2=59990365827505243MT.1.2.3 Linecode=16512329H-3 Length=43.332 units=m

New Line.16101867 Phases=3 Bus1=60084226827428701MT.1.2.3 Bus2=60087453827426296MT.1.2.3 Linecode=16512328H-3 Length=40.246 units=m

New Line.15366683 Phases=3 Bus1=60103884827484076MT.1.2.3 Bus2=60101377827485607MT.1.2.3 Linecode=16512329H-3 Length=29.375 units=m

New Line.15366684 Phases=3 Bus1=60103884827484076MT.1.2.3 Bus2=60104116827485123MT.1.2.3 Linecode=16512328H-3 Length=10.724 units=m

New Line.15366685 Phases=3 Bus1=60100572827476249MT.1.2.3 Bus2=60097937827477986MT.1.2.3 Linecode=16512329H-3 Length=31.56 units=m

New Line.15366686 Phases=3 Bus1=60100572827476249MT.1.2.3 Bus2=60101841827477899MT.1.2.3 Linecode=16512328H-3 Length=20.816 units=m

New Line.15366687 Phases=3 Bus1=60095539827470727MT.1.2.3 Bus2=60092284827472487MT.1.2.3 Linecode=16512329H-3 Length=37.004 units=m

New Line.15365421 Phases=3 Bus1=59913418827571609MT.1.2.3 Bus2=59914590827570913MT.1.2.3 Linecode=5281632C-3 Length=15.133 units=m

New Line.15366539 Phases=3 Bus1=60057969827371279MT.1.2.3 Bus2=60055982827369576MT.1.2.3 Linecode=16512329H-3 Length=26.169 units=m

New Line.15366540 Phases=3 Bus1=60073340827385887MT.1.2.3 Bus2=60071523827384184MT.1.2.3 Linecode=16512328H-3 Length=21.982 units=m

New Line.15366538 Phases=3 Bus1=60043828827378000MT.1.2.3 Bus2=60041970827375405MT.1.2.3 Linecode=16512329H-3 Length=33.414 units=m

New Line.13560834 Phases=3 Bus1=60014795827376878MT.1.2.3 Bus2=60009662827373240MT.1.2.3 Linecode=16512325H-3 Length=59.689 units=m

New Line.13641010 Phases=3 Bus1=60074219827443097MT.1.2.3 Bus2=60073457827443594MT.1.2.3 Linecode=5281627C-3 Length=5.697 units=m

New Line.13641011 Phases=3 Bus1=60073457827443594MT.1.2.3 Bus2=60069377827446022MT.1.2.3 Linecode=5281627C-3 Length=47.478 units=m

New Line.15365056 Phases=3 Bus1=59970497827541891MT.1.2.3 Bus2=59972405827543922MT.1.2.3 Linecode=16512329H-3 Length=27.867 units=m

New Line.15365057 Phases=3 Bus1=59984612827525109MT.1.2.3 Bus2=59984347827526219MT.1.2.3 Linecode=16512329H-3 Length=11.412 units=m

New Line.15365058 Phases=3 Bus1=59991294827510150MT.1.2.3 Bus2=59990716827509562MT.1.2.3 Linecode=16512329H-3 Length=8.245 units=m

New Line.15365031 Phases=3 Bus1=59976104827515367MT.1.2.3 Bus2=59975276827513038MT.1.2.3 Linecode=16512329H-3 Length=24.718 units=m

New Line.15365032 Phases=3 Bus1=59965733827538501MT.1.2.3 Bus2=59967711827537858MT.1.2.3 Linecode=16512329H-3 Length=20.799 units=m

New Line.15365033 Phases=3 Bus1=59970497827541891MT.1.2.3 Bus2=59968700827542627MT.1.2.3 Linecode=16512329H-3 Length=19.419 units=m

New Line.15365335 Phases=3 Bus1=59945219827516873MT.1.2.3 Bus2=59945647827514578MT.1.2.3 Linecode=16512328H-3 Length=24.84 units=m

New Line.16487528 Phases=3 Bus1=60103884827484076MT.1.2.3 Bus2=60105693827482974MT.1.2.3 Linecode=16512329H-3 Length=21.182 units=m

New Line.16453814 Phases=3 Bus1=60070782827359291MT.1.2.3 Bus2=60069359827358615MT.1.2.3 Linecode=16512329H-3P Length=17.248 units=m

New Line.16812389 Phases=3 Bus1=60082892827458931MT.1.2.3 Bus2=60083564827458450MT.1.2.3 Linecode=16512329H-3 Length=8.264 units=m

New Line.16812390 Phases=3 Bus1=60082892827458931MT.1.2.3 Bus2=60079266827460775MT.1.2.3 Linecode=16512329H-3 Length=40.679 units=m

New Line.16812391 Phases=3 Bus1=60082892827458931MT.1.2.3 Bus2=60082627827459417MT.1.2.3 Linecode=16512328H-3 Length=5.536 units=m

New Line.16812392 Phases=3 Bus1=60081419827456163MT.1.2.3 Bus2=60082892827458931MT.1.2.3 Linecode=16512328H-3 Length=27.836 units=m

New Line.16812393 Phases=3 Bus1=60088395827453411MT.1.2.3 Bus2=60088115827450560MT.1.2.3 Linecode=16512329H-3 Length=28.647 units=m

New Line.16812394 Phases=3 Bus1=60083564827458450MT.1.2.3 Bus2=60086065827457053MT.1.2.3 Linecode=16512329H-3 Length=28.647 units=m

New Line.16812395 Phases=3 Bus1=60086065827457053MT.1.2.3 Bus2=60088265827455537MT.1.2.3 Linecode=16512329H-3 Length=26.718 units=m

New Line.16100110 Phases=3 Bus1=60056082827372521MT.1.2.3 Bus2=60054536827370916MT.1.2.3 Linecode=16512329H-3P Length=23.784 units=m

New Line.16100111 Phases=3 Bus1=60033027827379203MT.1.2.3 Bus2=60032263827378501MT.1.2.3 Linecode=16512329H-3P Length=11.876 units=m

New Line.13274824 Phases=3 Bus1=60075518827387880MT.1.2.3 Bus2=60074080827386635MT.1.2.3 Linecode=16512328H-3 Length=19.021 units=m

New Line.13274825 Phases=3 Bus1=60073973827386527MT.1.2.3 Bus2=60073340827385887MT.1.2.3 Linecode=16512328H-3 Length=10.522 units=m

New Line.15901480 Phases=3 Bus1=60019474827468748MT.1.2.3 Bus2=60023203827466681MT.1.2.3 Linecode=16512328H-3 Length=42.636 units=m

New Line.15901481 Phases=3 Bus1=60016213827470822MT.1.2.3 Bus2=60019474827468748MT.1.2.3 Linecode=16512328H-3 Length=38.647 units=m

New Line.16525159 Phases=3 Bus1=59988499827510989MT.1.2.3 Bus2=59991294827510150MT.1.2.3 Linecode=16512329H-3 Length=29.182 units=m

New Line.16524212 Phases=3 Bus1=60104146827485270MT.1.2.3 Bus2=60104871827488833MT.1.2.3 Linecode=16512328H-3 Length=37.86 units=m

New Line.16524213 Phases=3 Bus1=60122118827473751MT.1.2.3 Bus2=60124608827472266MT.1.2.3 Linecode=16512329H-3 Length=28.992 units=m

New Line.16524214 Phases=3 Bus1=60100536827467573MT.1.2.3 Bus2=60104791827465390MT.1.2.3 Linecode=16512329H-3 Length=47.823 units=m

New Line.16525158 Phases=3 Bus1=59985453827512092MT.1.2.3 Bus2=59988499827510989MT.1.2.3 Linecode=16512329H-3 Length=32.396 units=m

New Line.14488013 Phases=3 Bus1=60081955827506053MT.1.2.3 Bus2=60083085827509265MT.1.2.3 Linecode=5281628C-3 Length=32.655 units=m

New Line.14488014 Phases=3 Bus1=60083085827509265MT.1.2.3 Bus2=60084509827509750MT.1.2.3 Linecode=5281628C-3 Length=13.742 units=m

New Line.14488015 Phases=3 Bus1=60074000827514415MT.1.2.3 Bus2=60071613827515498MT.1.2.3 Linecode=5281628C-3 Length=27.716 units=m

New Line.17434934 Phases=3 Bus1=60086383827431280MT.1.2.3 Bus2=60086617827431256MT.1.2.3 Linecode=16512329H-3P Length=2.352 units=m

New Line.17434936 Phases=3 Bus1=60081041827430354MT.1.2.3 Bus2=60084226827428701MT.1.2.3 Linecode=16512328H-3 Length=35.884 units=m

New Line.14488630 Phases=3 Bus1=60077584827512804MT.1.2.3 Bus2=60074000827514415MT.1.2.3 Linecode=5281628C-3 Length=39.294 units=m

New Line.14488631 Phases=3 Bus1=60079795827511817MT.1.2.3 Bus2=60077584827512804MT.1.2.3 Linecode=5281628C-3 Length=24.213 units=m

New Line.14488632 Phases=3 Bus1=60084509827509750MT.1.2.3 Bus2=60082638827510533MT.1.2.3 Linecode=5281628C-3 Length=19.187 units=m

New Line.14488633 Phases=3 Bus1=60082638827510533MT.1.2.3 Bus2=60079795827511817MT.1.2.3 Linecode=5281628C-3 Length=31.195 units=m

New Line.16132677 Phases=3 Bus1=59949635827531169MT.1.2.3 Bus2=59948580827527905MT.1.2.3 Linecode=16512328H-3 Length=34.303 units=m

New Line.16132679 Phases=3 Bus1=59952895827534809MT.1.2.3 Bus2=59956128827533947MT.1.2.3 Linecode=16512329H-3 Length=34.961 units=m

New Line.16132680 Phases=3 Bus1=59957185827536350MT.1.2.3 Bus2=59958599827540558MT.1.2.3 Linecode=16512329H-3 Length=44.392 units=m

New Line.16132681 Phases=3 Bus1=59958738827540502MT.1.2.3 Bus2=59961570827539363MT.1.2.3 Linecode=16512329H-3 Length=32.023 units=m

New Line.123469856 Phases=3 Bus1=60069377827446022MT.1.2.3 Bus2=60068741827445485MT.1.2.3 Linecode=16512355M-3P Length=8.324 units=m

New Line.13733142 Phases=3 Bus1=60036984827457961MT.1.2.3 Bus2=60040076827455752MT.1.2.3 Linecode=16512328H-3 Length=35.257 units=m

New Line.52978009 Phases=3 Bus1=59996992827485553MT.1.2.3 Bus2=59997821827486637MT.1.2.3 Linecode=16512355M-3P Length=13.647 units=m

New Line.12677050 Phases=3 Bus1=59962425827564565MT.1.2.3 Bus2=59960222827563954MT.1.2.3 Linecode=5281628C-3 Length=19.847 units=m

New Line.12677051 Phases=3 Bus1=59960222827563954MT.1.2.3 Bus2=59959805827562506MT.1.2.3 Linecode=5281628C-3 Length=12.714 units=m

New Line.16788171 Phases=3 Bus1=60064002827441034MT.1.2.3 Bus2=60067434827438810MT.1.2.3 Linecode=16512328H-3 Length=40.896 units=m

New Line.16788172 Phases=3 Bus1=60067434827438810MT.1.2.3 Bus2=60071153827436711MT.1.2.3 Linecode=16512328H-3 Length=42.705 units=m

New Line.16788174 Phases=3 Bus1=60025805827464947MT.1.2.3 Bus2=60028494827463101MT.1.2.3 Linecode=16512328H-3 Length=32.617 units=m

New Line.16788175 Phases=3 Bus1=60023203827466681MT.1.2.3 Bus2=60025805827464947MT.1.2.3 Linecode=16512328H-3 Length=31.268 units=m

New Line.16485736 Phases=3 Bus1=59956629827533817MT.1.2.3 Bus2=59956091827532254MT.1.2.3 Linecode=16512329H-3 Length=16.53 units=m

New Line.16454344 Phases=3 Bus1=59961623827532413MT.1.2.3 Bus2=59962442827532210MT.1.2.3 Linecode=16512329H-3 Length=8.438 units=m

New Line.16811493 Phases=3 Bus1=60050365827449629MT.1.2.3 Bus2=60053602827447306MT.1.2.3 Linecode=16512328H-3 Length=39.843 units=m

New Line.13256063 Phases=3 Bus1=59990291827498460MT.1.2.3 Bus2=59987052827499292MT.1.2.3 Linecode=16512329H-3 Length=31.331 units=m

New Line.16927133 Phases=3 Bus1=60099633827496222MT.1.2.3 Bus2=60095819827498349MT.1.2.3 Linecode=5281628C-3 Length=43.67 units=m

New Line.16132682 Phases=3 Bus1=59946400827520620MT.1.2.3 Bus2=59945192827517020MT.1.2.3 Linecode=16512328H-3 Length=37.973 units=m

New Line.16132688 Phases=3 Bus1=60104442827417770MT.1.2.3 Bus2=60106993827420609MT.1.2.3 Linecode=16512328H-3 Length=39.669 units=m

New Line.16132689 Phases=3 Bus1=60077741827390225MT.1.2.3 Bus2=60075518827387880MT.1.2.3 Linecode=16512328H-3 Length=32.312 units=m

New Line.16132690 Phases=3 Bus1=60063934827382783MT.1.2.3 Bus2=60056570827382130MT.1.2.3 Linecode=16512328H-3 Length=73.929 units=m

New Line.14948246 Phases=3 Bus1=60014795827376878MT.1.2.3 Bus2=60014774827376840MT.1.2.3 Linecode=16512329H-3 Length=1.338 units=m

New Line.14948249 Phases=3 Bus1=60084028827429828MT.1.2.3 Bus2=60083825827430797MT.1.2.3 Linecode=16512329H-3 Length=8.132 units=m

New Line.13285469 Phases=3 Bus1=59959805827562506MT.1.2.3 Bus2=59959228827560739MT.1.2.3 Linecode=5281628C-3 Length=18.588 units=m

New Line.13285470 Phases=3 Bus1=59959177827560598MT.1.2.3 Bus2=59957896827557053MT.1.2.3 Linecode=16512328H-3 Length=39.193 units=m

New Line.14359826 Phases=3 Bus1=60097807827478060MT.1.2.3 Bus2=60094004827480224MT.1.2.3 Linecode=16512329H-3 Length=45.252 units=m

New Line.14359832 Phases=3 Bus1=60106442827493719MT.1.2.3 Bus2=60103985827494051MT.1.2.3 Linecode=5281628C-3 Length=22.26 units=m

New Line.14359833 Phases=3 Bus1=60103985827494051MT.1.2.3 Bus2=60103135827494100MT.1.2.3 Linecode=5281628C-3 Length=8.514 units=m

New Line.14359834 Phases=3 Bus1=60103985827494051MT.1.2.3 Bus2=60104384827496003MT.1.2.3 Linecode=5281628C-3 Length=19.924 units=m

New Line.14359835 Phases=3 Bus1=60103985827494051MT.1.2.3 Bus2=60103708827492789MT.1.2.3 Linecode=5281628C-3 Length=12.92 units=m

New Line.13231902 Phases=3 Bus1=60066217827382022MT.1.2.3 Bus2=60060896827381372MT.1.2.3 Linecode=5281628C-3 Length=53.606 units=m

New Line.13231904 Phases=3 Bus1=60036394827378843MT.1.2.3 Bus2=60031252827378298MT.1.2.3 Linecode=5281628C-3 Length=51.708 units=m

New Line.13231905 Phases=3 Bus1=60052798827380505MT.1.2.3 Bus2=60046973827379925MT.1.2.3 Linecode=5281628C-3 Length=58.538 units=m

New Line.13231900 Phases=3 Bus1=60046973827379925MT.1.2.3 Bus2=60043795827379613MT.1.2.3 Linecode=5281628C-3 Length=28.274 units=m

New Line.13256062 Phases=3 Bus1=59951728827538333MT.1.2.3 Bus2=59950966827535631MT.1.2.3 Linecode=16512328H-3 Length=24.782 units=m

New Line.52680144 Phases=3 Bus1=60073330827442791MT.1.2.3 Bus2=60074394827443108MT.1.2.3 Linecode=16512355M-3P Length=11.102 units=m

New Line.13317347 Phases=3 Bus1=60097988827416550MT.1.2.3 Bus2=60102063827414643MT.1.2.3 Linecode=5281628C-3 Length=41.289 units=m

New Line.13317348 Phases=3 Bus1=60088407827398684MT.1.2.3 Bus2=60083706827394128MT.1.2.3 Linecode=5281628C-3 Length=65.465 units=m

New Line.13317349 Phases=3 Bus1=60099642827411430MT.1.2.3 Bus2=60093766827405113MT.1.2.3 Linecode=5281628C-3 Length=82.992 units=m

New Line.13317350 Phases=3 Bus1=60094942827418493MT.1.2.3 Bus2=60097988827416550MT.1.2.3 Linecode=5281628C-3 Length=36.129 units=m

New Line.13317351 Phases=3 Bus1=60079987827432507MT.1.2.3 Bus2=60077958827428300MT.1.2.3 Linecode=5281628C-3 Length=42.991 units=m

New Line.13317354 Phases=3 Bus1=60073504827384271MT.1.2.3 Bus2=60071771827382666MT.1.2.3 Linecode=5281628C-3 Length=20.142 units=m

New Line.13698600 Phases=3 Bus1=59937552827579646MT.1.2.3 Bus2=59940960827580819MT.1.2.3 Linecode=5281632C-3 Length=36.042 units=m

New Line.13698610 Phases=3 Bus1=59940960827580819MT.1.2.3 Bus2=59943277827581762MT.1.2.3 Linecode=5281628C-3 Length=25.015 units=m

New Line.16844777 Phases=3 Bus1=59947613827524616MT.1.2.3 Bus2=59946400827520620MT.1.2.3 Linecode=16512328H-3 Length=41.76 units=m

New Line.16844778 Phases=3 Bus1=59948580827527905MT.1.2.3 Bus2=59947613827524616MT.1.2.3 Linecode=16512328H-3 Length=34.282 units=m

New Line.16591805 Phases=3 Bus1=59976298827495168MT.1.2.3 Bus2=59979165827493300MT.1.2.3 Linecode=16512328H-3 Length=34.219 units=m

New Line.16591806 Phases=3 Bus1=59972473827496969MT.1.2.3 Bus2=59976298827495168MT.1.2.3 Linecode=16512328H-3 Length=42.278 units=m

New Line.71456686 Phases=3 Bus1=59968571827517588MT.1.2.3 Bus2=59967278827517969MT.1.2.3 Linecode=16512329H-3 Length=13.48 units=m

New Line.107968669 Phases=3 Bus1=60058127827380379MT.1.2.3 Bus2=60058117827380662MT.1.2.3 Linecode=16512355M-3P Length=2.832 units=m

New Line.18291737 Phases=3 Bus1=60079135827460847MT.1.2.3 Bus2=60078675827461100MT.1.2.3 Linecode=16512329H-3 Length=6.745 units=m

New Line.18291738 Phases=3 Bus1=60078675827461100MT.1.2.3 Bus2=60075726827462334MT.1.2.3 Linecode=16512329H-3 Length=31.968 units=m

New Line.18291739 Phases=3 Bus1=60078584827460981MT.1.2.3 Bus2=60077864827460034MT.1.2.3 Linecode=16512329H-3 Length=13.394 units=m

New Line.16133454 Phases=3 Bus1=59976104827515367MT.1.2.3 Bus2=59977795827514664MT.1.2.3 Linecode=16512329H-3 Length=18.313 units=m

New Line.16133455 Phases=3 Bus1=59976392827516639MT.1.2.3 Bus2=59976104827515367MT.1.2.3 Linecode=16512329H-3 Length=13.042 units=m

New Line.16133456 Phases=3 Bus1=59983612827512644MT.1.2.3 Bus2=59985453827512092MT.1.2.3 Linecode=16512329H-3 Length=19.22 units=m

New Line.16133457 Phases=3 Bus1=59991752827509765MT.1.2.3 Bus2=59995642827508775MT.1.2.3 Linecode=16512329H-3 Length=40.14 units=m

New Line.16133458 Phases=3 Bus1=59995642827508775MT.1.2.3 Bus2=59998361827507487MT.1.2.3 Linecode=16512329H-3 Length=30.086 units=m

New Line.16133459 Phases=3 Bus1=59990365827505243MT.1.2.3 Bus2=59990047827501407MT.1.2.3 Linecode=16512329H-3 Length=38.492 units=m

New Line.16133460 Phases=3 Bus1=59990042827523299MT.1.2.3 Bus2=59993177827522243MT.1.2.3 Linecode=16512329H-3 Length=33.081 units=m

New Line.16133461 Phases=3 Bus1=59993177827522243MT.1.2.3 Bus2=59997225827520527MT.1.2.3 Linecode=16512329H-3 Length=43.967 units=m

New Line.16133462 Phases=3 Bus1=59997225827520527MT.1.2.3 Bus2=59999988827520325MT.1.2.3 Linecode=16512329H-3 Length=27.704 units=m

New Line.16133463 Phases=3 Bus1=60000187827521798MT.1.2.3 Bus2=59999414827525473MT.1.2.3 Linecode=16512329H-3 Length=37.554 units=m

New Line.16163231 Phases=3 Bus1=60092172827430233MT.1.2.3 Bus2=60094018827429009MT.1.2.3 Linecode=16512329H-3 Length=22.149 units=m

New Line.16133131 Phases=3 Bus1=60060632827368350MT.1.2.3 Bus2=60063945827366810MT.1.2.3 Linecode=16512329H-3 Length=36.534 units=m

New Line.16133132 Phases=3 Bus1=59985369827490248MT.1.2.3 Bus2=59988240827487705MT.1.2.3 Linecode=16512328H-3 Length=38.353 units=m

New Line.16133133 Phases=3 Bus1=59967482827500048MT.1.2.3 Bus2=59970273827498384MT.1.2.3 Linecode=16512328H-3 Length=32.494 units=m

New Line.16133530 Phases=3 Bus1=59959670827565655MT.1.2.3 Bus2=59962425827564565MT.1.2.3 Linecode=16512328H-3 Length=29.628 units=m

New Line.16133443 Phases=3 Bus1=59956128827533947MT.1.2.3 Bus2=59956629827533817MT.1.2.3 Linecode=16512329H-3 Length=5.176 units=m

New Line.16133444 Phases=3 Bus1=59959285827533013MT.1.2.3 Bus2=59961623827532413MT.1.2.3 Linecode=16512329H-3 Length=24.138 units=m

New Line.16133445 Phases=3 Bus1=59956629827533817MT.1.2.3 Bus2=59957185827536350MT.1.2.3 Linecode=16512329H-3 Length=25.933 units=m

New Line.16133446 Phases=3 Bus1=59964261827531644MT.1.2.3 Bus2=59966776827530816MT.1.2.3 Linecode=16512329H-3 Length=26.478 units=m

New Line.16133447 Phases=3 Bus1=59966776827530816MT.1.2.3 Bus2=59969964827529803MT.1.2.3 Linecode=16512329H-3 Length=33.451 units=m

New Line.16133448 Phases=3 Bus1=59969964827529803MT.1.2.3 Bus2=59973925827528356MT.1.2.3 Linecode=16512329H-3 Length=42.17 units=m

New Line.16133449 Phases=3 Bus1=59973925827528356MT.1.2.3 Bus2=59977707827527111MT.1.2.3 Linecode=16512329H-3 Length=39.817 units=m

New Line.16133450 Phases=3 Bus1=59984069827525279MT.1.2.3 Bus2=59984612827525109MT.1.2.3 Linecode=16512329H-3 Length=5.69 units=m

New Line.16133451 Phases=3 Bus1=59986484827524516MT.1.2.3 Bus2=59990042827523299MT.1.2.3 Linecode=16512329H-3 Length=37.604 units=m

New Line.16133452 Phases=3 Bus1=59977614827520806MT.1.2.3 Bus2=59976392827516639MT.1.2.3 Linecode=16512329H-3 Length=43.425 units=m

New Line.16133453 Phases=3 Bus1=59967278827517969MT.1.2.3 Bus2=59965650827518449MT.1.2.3 Linecode=16512329H-3 Length=16.973 units=m

New Line.16163230 Phases=3 Bus1=60094018827429009MT.1.2.3 Bus2=60094915827428453MT.1.2.3 Linecode=16512329H-3 Length=10.553 units=m

New Line.17283154 Phases=3 Bus1=59914590827570913MT.1.2.3 Bus2=59908744827568785MT.1.2.3 Linecode=5281632C-3 Length=65.699 units=m

New Line.13761201 Phases=3 Bus1=60076029827384573MT.1.2.3 Bus2=60079283827384950MT.1.2.3 Linecode=16512328H-3 Length=32.758 units=m

New Line.13761202 Phases=3 Bus1=60079283827384950MT.1.2.3 Bus2=60080084827385012MT.1.2.3 Linecode=16512328H-3 Length=8.034 units=m

New Line.12694661 Phases=3 Bus1=60102184827414541MT.1.2.3 Bus2=60098904827412418MT.1.2.3 Linecode=16512328H-3 Length=39.071 units=m

New Line.12694656 Phases=3 Bus1=60071523827384184MT.1.2.3 Bus2=60067690827383207MT.1.2.3 Linecode=16512328H-3 Length=35.755 units=m

New Line.12694660 Phases=3 Bus1=60103523827416015MT.1.2.3 Bus2=60102184827414541MT.1.2.3 Linecode=16512328H-3 Length=19.914 units=m

New Line.16929790 Phases=3 Bus1=59912834827572831MT.1.2.3 Bus2=59913289827571686MT.1.2.3 Linecode=5281632C-3 Length=12.321 units=m

New Line.16929791 Phases=3 Bus1=59930974827578222MT.1.2.3 Bus2=59931786827578488MT.1.2.3 Linecode=5281632C-3 Length=8.545 units=m

New Line.13698591 Phases=3 Bus1=59933029827578908MT.1.2.3 Bus2=59935525827579856MT.1.2.3 Linecode=5281632C-3 Length=26.7 units=m

New Line.13698594 Phases=3 Bus1=59935525827579856MT.1.2.3 Bus2=59937552827579646MT.1.2.3 Linecode=5281632C-3 Length=16.538 units=m

New Line.13698894 Phases=3 Bus1=59943277827581762MT.1.2.3 Bus2=59945654827582701MT.1.2.3 Linecode=5281628C-3 Length=27.062 units=m

New Line.16485008 Phases=3 Bus1=60064017827382658MT.1.2.3 Bus2=60065848827379890MT.1.2.3 Linecode=16512329H-3 Length=34.688 units=m

New Line.13232173 Phases=3 Bus1=60016050827376519MT.1.2.3 Bus2=60012779827374695MT.1.2.3 Linecode=5281628C-3 Length=33.74 units=m

New Line.13232175 Phases=3 Bus1=60022967827377374MT.1.2.3 Bus2=60016050827376519MT.1.2.3 Linecode=5281628C-3 Length=69.696 units=m

New Line.13232176 Phases=3 Bus1=60012779827374695MT.1.2.3 Bus2=60009793827373061MT.1.2.3 Linecode=5281628C-3 Length=34.038 units=m

New Line.13232177 Phases=3 Bus1=60031252827378298MT.1.2.3 Bus2=60022967827377374MT.1.2.3 Linecode=5281628C-3 Length=83.364 units=m

New Line.13232165 Phases=3 Bus1=60043795827379613MT.1.2.3 Bus2=60036394827378843MT.1.2.3 Linecode=5281628C-3 Length=74.409 units=m

New Line.13232166 Phases=3 Bus1=60057978827381111MT.1.2.3 Bus2=60052798827380505MT.1.2.3 Linecode=5281628C-3 Length=52.153 units=m

New Line.13232167 Phases=3 Bus1=60071771827382666MT.1.2.3 Bus2=60066217827382022MT.1.2.3 Linecode=5281628C-3 Length=51.742 units=m

New Line.13232168 Phases=3 Bus1=60009793827373061MT.1.2.3 Bus2=60007233827371420MT.1.2.3 Linecode=5281628C-3 Length=30.408 units=m

New Line.13232171 Phases=3 Bus1=60060896827381372MT.1.2.3 Bus2=60057978827381111MT.1.2.3 Linecode=5281628C-3 Length=29.296 units=m

New Line.13710525 Phases=3 Bus1=60091073827440661MT.1.2.3 Bus2=60092237827436975MT.1.2.3 Linecode=5281627C-3 Length=35.191 units=m

New Line.17546552 Phases=3 Bus1=60080699827452649MT.1.2.3 Bus2=60081419827456163MT.1.2.3 Linecode=16512328H-3 Length=32.156 units=m

New Line.17546551 Phases=3 Bus1=60088265827455537MT.1.2.3 Bus2=60088395827453411MT.1.2.3 Linecode=16512329H-3 Length=18.117 units=m

New Line.17546336 Phases=3 Bus1=60080378827449791MT.1.2.3 Bus2=60080699827452649MT.1.2.3 Linecode=16512328H-3 Length=28.76 units=m

New Line.17546337 Phases=3 Bus1=60095539827470727MT.1.2.3 Bus2=60096206827471609MT.1.2.3 Linecode=16512328H-3 Length=11.058 units=m

New Line.84227427 Phases=3 Bus1=60074219827443097MT.1.2.3 Bus2=60073330827442791MT.1.2.3 Linecode=5281631C-3P Length=9.402 units=m

New Line.16524356 Phases=3 Bus1=60097856827426515MT.1.2.3 Bus2=60101623827424766MT.1.2.3 Linecode=16512329H-3 Length=41.532 units=m

New Line.16524361 Phases=3 Bus1=60100056827475626MT.1.2.3 Bus2=60100572827476249MT.1.2.3 Linecode=16512328H-3 Length=8.089 units=m

New Line.16524362 Phases=3 Bus1=60088392827431821MT.1.2.3 Bus2=60092172827430233MT.1.2.3 Linecode=16512329H-3 Length=41.0 units=m

New Line.14362024 Phases=3 Bus1=60031662827461346MT.1.2.3 Bus2=60033700827460022MT.1.2.3 Linecode=16512328H-3 Length=25.806 units=m

New Line.14362026 Phases=3 Bus1=60061028827442507MT.1.2.3 Bus2=60064002827441034MT.1.2.3 Linecode=16512328H-3 Length=31.954 units=m

New Line.14489685 Phases=3 Bus1=60085459827504246MT.1.2.3 Bus2=60081955827506053MT.1.2.3 Linecode=5281628C-3 Length=39.425 units=m

New Line.14489686 Phases=3 Bus1=60088908827502237MT.1.2.3 Bus2=60085459827504246MT.1.2.3 Linecode=5281628C-3 Length=39.915 units=m

New Line.14489687 Phases=3 Bus1=60095819827498349MT.1.2.3 Bus2=60092402827500476MT.1.2.3 Linecode=5281628C-3 Length=40.249 units=m

New Line.14489688 Phases=3 Bus1=60092402827500476MT.1.2.3 Bus2=60088908827502237MT.1.2.3 Linecode=5281628C-3 Length=39.127 units=m

New Line.17179273 Phases=3 Bus1=60071523827384184MT.1.2.3 Bus2=60076029827384573MT.1.2.3 Linecode=16512328H-3 Length=42.64 units=m

New Line.17179274 Phases=3 Bus1=60045891827381001MT.1.2.3 Bus2=60043915827378122MT.1.2.3 Linecode=16512329H-3 Length=31.869 units=m

New Line.15367059 Phases=3 Bus1=60085222827432334MT.1.2.3 Bus2=60086181827432286MT.1.2.3 Linecode=16512329H-3 Length=11.104 units=m

New Line.15367060 Phases=3 Bus1=60086181827432286MT.1.2.3 Bus2=60086575827432182MT.1.2.3 Linecode=16512329H-3 Length=4.075 units=m

New Line.15365838 Phases=3 Bus1=59965733827538501MT.1.2.3 Bus2=59963317827537256MT.1.2.3 Linecode=16512329H-3 Length=27.179 units=m

New Line.15365839 Phases=3 Bus1=59970497827541891MT.1.2.3 Bus2=59972415827541255MT.1.2.3 Linecode=16512329H-3 Length=20.207 units=m

New Line.15365841 Phases=3 Bus1=59984612827525109MT.1.2.3 Bus2=59984149827522448MT.1.2.3 Linecode=16512329H-3 Length=27.01 units=m

New Line.15365842 Phases=3 Bus1=59991294827510150MT.1.2.3 Bus2=59990678827512716MT.1.2.3 Linecode=16512329H-3 Length=26.389 units=m

New Line.15365843 Phases=3 Bus1=60103523827416015MT.1.2.3 Bus2=60104342827417658MT.1.2.3 Linecode=16512328H-3 Length=18.358 units=m

New Line.15365844 Phases=3 Bus1=60101569827417553MT.1.2.3 Bus2=60103523827416015MT.1.2.3 Linecode=16512328H-3 Length=22.335 units=m

New Line.15365845 Phases=3 Bus1=60057969827371279MT.1.2.3 Bus2=60057926827372267MT.1.2.3 Linecode=16512329H-3 Length=9.889 units=m

New Line.15365846 Phases=3 Bus1=60056186827372629MT.1.2.3 Bus2=60057969827371279MT.1.2.3 Linecode=16512329H-3 Length=22.364 units=m

New Line.15365847 Phases=3 Bus1=60067537827363544MT.1.2.3 Bus2=60066295827361686MT.1.2.3 Linecode=16512329H-3 Length=22.349 units=m

New Line.15365848 Phases=3 Bus1=60066338827364489MT.1.2.3 Bus2=60067537827363544MT.1.2.3 Linecode=16512329H-3 Length=15.266 units=m

New Line.15366455 Phases=3 Bus1=60018251827377568MT.1.2.3 Bus2=60014795827376878MT.1.2.3 Linecode=16512328H-3 Length=35.242 units=m

New Line.15366456 Phases=3 Bus1=60045891827381001MT.1.2.3 Bus2=60044172827381058MT.1.2.3 Linecode=16512328H-3 Length=17.199 units=m

New Line.15366457 Phases=3 Bus1=60067541827383190MT.1.2.3 Bus2=60063934827382783MT.1.2.3 Linecode=16512328H-3 Length=37.799 units=m

New Line.15366458 Phases=3 Bus1=60067537827363544MT.1.2.3 Bus2=60068868827361663MT.1.2.3 Linecode=16512329H-3 Length=23.043 units=m

New Line.16453288 Phases=3 Bus1=60094852827428317MT.1.2.3 Bus2=60094530827427615MT.1.2.3 Linecode=16512329H-3P Length=9.222 units=m

New Line.98637518 Phases=3 Bus1=60084970827466573MT.1.2.3 Bus2=60081905827468243MT.1.2.3 Linecode=45225705C-3 Length=33.048 units=m

New Line.98637506 Phases=3 Bus1=60081905827468243MT.1.2.3 Bus2=60078636827470100MT.1.2.3 Linecode=45225705C-3 Length=37.596 units=m

New Line.16133049 Phases=3 Bus1=60044172827381058MT.1.2.3 Bus2=60040736827380109MT.1.2.3 Linecode=16512328H-3 Length=35.646 units=m

New Line.16133050 Phases=3 Bus1=60044302827380984MT.1.2.3 Bus2=60047198827379328MT.1.2.3 Linecode=16512329H-3 Length=34.856 units=m

New Line.16133051 Phases=3 Bus1=60057969827371279MT.1.2.3 Bus2=60058651827370743MT.1.2.3 Linecode=16512329H-3 Length=8.674 units=m

New Line.16133052 Phases=3 Bus1=60055895827369454MT.1.2.3 Bus2=60053654827366285MT.1.2.3 Linecode=16512329H-3 Length=40.312 units=m

New Line.16133053 Phases=3 Bus1=60029050827378810MT.1.2.3 Bus2=60025149827378869MT.1.2.3 Linecode=16512328H-3 Length=40.515 units=m

New Line.16133515 Phases=3 Bus1=59999414827525473MT.1.2.3 Bus2=59999945827529197MT.1.2.3 Linecode=16512329H-3 Length=37.617 units=m

New Line.16133516 Phases=3 Bus1=59961570827539363MT.1.2.3 Bus2=59963967827538601MT.1.2.3 Linecode=16512329H-3 Length=25.152 units=m

New Line.16133517 Phases=3 Bus1=59963967827538601MT.1.2.3 Bus2=59965733827538501MT.1.2.3 Linecode=16512329H-3 Length=17.688 units=m

New Line.16133518 Phases=3 Bus1=59966115827539179MT.1.2.3 Bus2=59968058827540633MT.1.2.3 Linecode=16512329H-3 Length=24.268 units=m

New Line.16133519 Phases=3 Bus1=59968058827540633MT.1.2.3 Bus2=59970497827541891MT.1.2.3 Linecode=16512329H-3 Length=27.443 units=m

New Line.16133520 Phases=3 Bus1=59950966827535631MT.1.2.3 Bus2=59950748827534946MT.1.2.3 Linecode=16512328H-3 Length=7.189 units=m

New Line.16133521 Phases=3 Bus1=59952943827541837MT.1.2.3 Bus2=59951728827538333MT.1.2.3 Linecode=16512328H-3 Length=37.087 units=m

New Line.16133522 Phases=3 Bus1=59954117827545465MT.1.2.3 Bus2=59952943827541837MT.1.2.3 Linecode=16512328H-3 Length=38.132 units=m

New Line.16133523 Phases=3 Bus1=59955330827549011MT.1.2.3 Bus2=59954117827545465MT.1.2.3 Linecode=16512328H-3 Length=37.477 units=m

New Line.16133524 Phases=3 Bus1=59956722827553342MT.1.2.3 Bus2=59955330827549011MT.1.2.3 Linecode=16512328H-3 Length=45.492 units=m

New Line.16133525 Phases=3 Bus1=59957896827557053MT.1.2.3 Bus2=59956722827553342MT.1.2.3 Linecode=16512328H-3 Length=38.923 units=m

New Line.16133526 Phases=3 Bus1=59939806827574082MT.1.2.3 Bus2=59945126827571739MT.1.2.3 Linecode=16512328H-3 Length=58.131 units=m

New Line.16133527 Phases=3 Bus1=59945126827571739MT.1.2.3 Bus2=59950769827569638MT.1.2.3 Linecode=16512328H-3 Length=60.214 units=m

New Line.16133528 Phases=3 Bus1=59950769827569638MT.1.2.3 Bus2=59954269827568120MT.1.2.3 Linecode=16512328H-3 Length=38.15 units=m

New Line.16133529 Phases=3 Bus1=59956605827567103MT.1.2.3 Bus2=59959670827565655MT.1.2.3 Linecode=16512328H-3 Length=33.898 units=m

New Line.16133396 Phases=3 Bus1=59951134827510710MT.1.2.3 Bus2=59955356827508116MT.1.2.3 Linecode=16512328H-3 Length=49.552 units=m

New Line.16133397 Phases=3 Bus1=59955356827508116MT.1.2.3 Bus2=59959108827505774MT.1.2.3 Linecode=16512328H-3 Length=44.229 units=m

New Line.16133398 Phases=3 Bus1=59950748827534946MT.1.2.3 Bus2=59949635827531169MT.1.2.3 Linecode=16512328H-3 Length=39.376 units=m

New Line.16135695 Phases=3 Bus1=60086544827432035MT.1.2.3 Bus2=60086383827431280MT.1.2.3 Linecode=16512329H-3P Length=9.222 units=m

New Line.17283155 Phases=3 Bus1=59914590827570913MT.1.2.3 Bus2=59921934827574252MT.1.2.3 Linecode=5281632C-3 Length=78.755 units=m

New Line.14807595 Phases=3 Bus1=59954269827568120MT.1.2.3 Bus2=59956605827567103MT.1.2.3 Linecode=16512328H-3 Length=25.478 units=m

New Line.13317602 Phases=3 Bus1=60083706827394128MT.1.2.3 Bus2=60078380827388668MT.1.2.3 Linecode=5281628C-3 Length=76.274 units=m

New Line.13537176 Phases=3 Bus1=60028494827463101MT.1.2.3 Bus2=60031536827461428MT.1.2.3 Linecode=16512328H-3 Length=34.717 units=m

New Line.15365395 Phases=3 Bus1=60084240827461558MT.1.2.3 Bus2=60086261827463641MT.1.2.3 Linecode=16512328H-3 Length=29.023 units=m

New Line.15365396 Phases=3 Bus1=60100572827476249MT.1.2.3 Bus2=60102216827475394MT.1.2.3 Linecode=16512329H-3 Length=18.53 units=m

New Line.15365397 Phases=3 Bus1=60095539827470727MT.1.2.3 Bus2=60097359827469565MT.1.2.3 Linecode=16512329H-3 Length=21.593 units=m

New Line.15365398 Phases=3 Bus1=60081295827445811MT.1.2.3 Bus2=60080378827449791MT.1.2.3 Linecode=16512328H-3 Length=40.843 units=m

New Line.15365399 Phases=3 Bus1=60084501827433760MT.1.2.3 Bus2=60083664827437799MT.1.2.3 Linecode=16512328H-3 Length=41.248 units=m

New Line.15365400 Phases=3 Bus1=60086575827432182MT.1.2.3 Bus2=60088392827431821MT.1.2.3 Linecode=16512329H-3 Length=18.525 units=m

New Line.15365407 Phases=3 Bus1=60111319827425766MT.1.2.3 Bus2=60112387827426547MT.1.2.3 Linecode=16512328H-3 Length=13.231 units=m

New Line.15366616 Phases=3 Bus1=60086064827385303MT.1.2.3 Bus2=60088462827385489MT.1.2.3 Linecode=16512328H-3 Length=24.052 units=m

New Line.17301863 Phases=3 Bus1=60090291827443728MT.1.2.3 Bus2=60091073827440661MT.1.2.3 Linecode=16512329H-3 Length=31.651 units=m

New Line.17301864 Phases=3 Bus1=60088115827450560MT.1.2.3 Bus2=60089093827447494MT.1.2.3 Linecode=16512329H-3 Length=29.631 units=m

New Line.17301513 Phases=3 Bus1=60096330827460129MT.1.2.3 Bus2=60099701827458112MT.1.2.3 Linecode=16512329H-3 Length=39.283 units=m

New Line.17301514 Phases=3 Bus1=60092897827462116MT.1.2.3 Bus2=60096330827460129MT.1.2.3 Linecode=16512329H-3 Length=39.666 units=m

New Line.17301515 Phases=3 Bus1=60088700827464373MT.1.2.3 Bus2=60089436827463961MT.1.2.3 Linecode=16512329H-3 Length=9.934 units=m

New Line.17301516 Phases=3 Bus1=60089436827463961MT.1.2.3 Bus2=60092897827462116MT.1.2.3 Linecode=16512329H-3 Length=39.221 units=m

New Line.52448468 Phases=3 Bus1=60032263827378501MT.1.2.3 Bus2=60032157827378502MT.1.2.3 Linecode=16512355M-3P Length=1.06 units=m

New Line.17301509 Phases=3 Bus1=60088525827465078MT.1.2.3 Bus2=60089268827466103MT.1.2.3 Linecode=16512328H-3 Length=12.66 units=m

New Line.17301510 Phases=3 Bus1=60086261827463641MT.1.2.3 Bus2=60088525827465078MT.1.2.3 Linecode=16512328H-3 Length=26.815 units=m

New Line.17301511 Phases=3 Bus1=60088525827465078MT.1.2.3 Bus2=60084970827466573MT.1.2.3 Linecode=16512329H-3 Length=38.566 units=m

New Line.17301512 Phases=3 Bus1=60088525827465078MT.1.2.3 Bus2=60088569827464446MT.1.2.3 Linecode=16512329H-3 Length=6.335 units=m

New Line.17301865 Phases=3 Bus1=60089093827447494MT.1.2.3 Bus2=60090291827443728MT.1.2.3 Linecode=16512329H-3 Length=39.52 units=m

New Line.16845052 Phases=3 Bus1=60043727827453719MT.1.2.3 Bus2=60047276827451343MT.1.2.3 Linecode=16512328H-3 Length=42.709 units=m

New Line.16845055 Phases=3 Bus1=60076417827442050MT.1.2.3 Bus2=60074219827443097MT.1.2.3 Linecode=16512329H-3P Length=25.876 units=m

New Line.13149622 Phases=3 Bus1=60056670827382018MT.1.2.3 Bus2=60058127827380379MT.1.2.3 Linecode=16512329H-3 Length=23.431 units=m

New Line.14655546 Phases=3 Bus1=60039190827475731MT.1.2.3 Bus2=60041548827481766MT.1.2.3 Linecode=5281631C-3 Length=64.793 units=m

New Line.16930552 Phases=3 Bus1=59976104827515367MT.1.2.3 Bus2=59974650827515971MT.1.2.3 Linecode=16512329H-3 Length=15.745 units=m

New Line.16930553 Phases=3 Bus1=59974650827515971MT.1.2.3 Bus2=59972866827516442MT.1.2.3 Linecode=16512329H-3 Length=18.451 units=m

New Line.16930554 Phases=3 Bus1=59979585827526830MT.1.2.3 Bus2=59979881827528039MT.1.2.3 Linecode=16512329H-3 Length=12.447 units=m

New Line.16930555 Phases=3 Bus1=59979585827526830MT.1.2.3 Bus2=59978556827524165MT.1.2.3 Linecode=16512329H-3 Length=28.568 units=m

New Line.16930556 Phases=3 Bus1=59977707827527111MT.1.2.3 Bus2=59979585827526830MT.1.2.3 Linecode=16512329H-3 Length=18.989 units=m

New Line.16930557 Phases=3 Bus1=59979585827526830MT.1.2.3 Bus2=59981405827526197MT.1.2.3 Linecode=16512329H-3 Length=19.269 units=m

New Line.16989414 Phases=3 Bus1=59934732827577622MT.1.2.3 Bus2=59937290827575574MT.1.2.3 Linecode=16512328H-3 Length=34.269 units=m

New Line.101827931 Phases=3 Bus1=60124608827472266MT.1.2.3 Bus2=60127219827471306MT.1.2.3 Linecode=45225705C-3 Length=26.185 units=m

New Line.101827950 Phases=3 Bus1=60127524827474868MT.1.2.3 Bus2=60128016827478011MT.1.2.3 Linecode=45225705C-3 Length=31.813 units=m

New Line.101827962 Phases=3 Bus1=60127219827471306MT.1.2.3 Bus2=60127524827474868MT.1.2.3 Linecode=45225705C-3 Length=33.689 units=m

New Line.14436294 Phases=3 Bus1=60100040827440145MT.1.2.3 Bus2=60099800827441431MT.1.2.3 Linecode=5281631C-3 Length=13.082 units=m

New Line.14436295 Phases=3 Bus1=60100685827432334MT.1.2.3 Bus2=60100597827436515MT.1.2.3 Linecode=5281631C-3 Length=39.107 units=m

New Line.14436296 Phases=3 Bus1=60100597827436515MT.1.2.3 Bus2=60100040827440145MT.1.2.3 Linecode=5281631C-3 Length=36.725 units=m

New Line.17176135 Phases=3 Bus1=59931786827578488MT.1.2.3 Bus2=59934615827577716MT.1.2.3 Linecode=5281632C-3 Length=26.982 units=m

New Line.16454353 Phases=3 Bus1=60082627827459417MT.1.2.3 Bus2=60084240827461558MT.1.2.3 Linecode=16512328H-3 Length=26.806 units=m

New Line.16484723 Phases=3 Bus1=60033138827379304MT.1.2.3 Bus2=60029200827378808MT.1.2.3 Linecode=16512328H-3 Length=39.691 units=m

New Line.13529318 Phases=3 Bus1=59959108827505774MT.1.2.3 Bus2=59961790827503998MT.1.2.3 Linecode=16512328H-3 Length=32.167 units=m

New Line.17414764 Phases=3 Bus1=60103523827416015MT.1.2.3 Bus2=60104448827415512MT.1.2.3 Linecode=16512328H-3 Length=10.529 units=m

New Line.17414765 Phases=3 Bus1=60104448827415512MT.1.2.3 Bus2=60108945827413507MT.1.2.3 Linecode=16512328H-3 Length=45.613 units=m

New Line.17434400 Phases=3 Bus1=60094393827422056MT.1.2.3 Bus2=60096851827419932MT.1.2.3 Linecode=16512328H-3 Length=32.486 units=m

New Line.17434401 Phases=3 Bus1=60096985827419864MT.1.2.3 Bus2=60101569827417553MT.1.2.3 Linecode=16512328H-3 Length=52.839 units=m

New Line.13123638 Phases=3 Bus1=60102043827484084MT.1.2.3 Bus2=60101304827482068MT.1.2.3 Linecode=5281628C-3 Length=21.472 units=m

New Line.13123639 Phases=3 Bus1=60080761827438537MT.1.2.3 Bus2=60080426827435451MT.1.2.3 Linecode=5281628C-3 Length=31.041 units=m

New Line.13123640 Phases=3 Bus1=60078376827449677MT.1.2.3 Bus2=60079025827446050MT.1.2.3 Linecode=5281628C-3 Length=36.846 units=m

New Line.13123635 Phases=3 Bus1=60082422827462362MT.1.2.3 Bus2=60081112827460483MT.1.2.3 Linecode=5281628C-3 Length=22.906 units=m

New Line.13123636 Phases=3 Bus1=60089672827468838MT.1.2.3 Bus2=60086927827466612MT.1.2.3 Linecode=5281628C-3 Length=35.341 units=m

New Line.13123637 Phases=3 Bus1=60097433827475796MT.1.2.3 Bus2=60094685827472912MT.1.2.3 Linecode=5281628C-3 Length=36.356 units=m

New Line.13217350 Phases=3 Bus1=60083859827430946MT.1.2.3 Bus2=60084501827433760MT.1.2.3 Linecode=16512328H-3 Length=30.391 units=m

New Line.15976415 Phases=3 Bus1=59982124827491743MT.1.2.3 Bus2=59985369827490248MT.1.2.3 Linecode=16512328H-3 Length=35.728 units=m

New Line.13545692 Phases=3 Bus1=60073330827442791MT.1.2.3 Bus2=60073575827442528MT.1.2.3 Linecode=16512329H-3P Length=2.513 units=m

New Line.13545695 Phases=3 Bus1=60071153827436711MT.1.2.3 Bus2=60074483827434306MT.1.2.3 Linecode=16512328H-3 Length=41.077 units=m

New Line.13545696 Phases=3 Bus1=60074483827434306MT.1.2.3 Bus2=60077450827432357MT.1.2.3 Linecode=16512328H-3 Length=35.499 units=m

New Line.13754755 Phases=3 Bus1=60033700827460022MT.1.2.3 Bus2=60036984827457961MT.1.2.3 Linecode=16512328H-3 Length=38.772 units=m

New Line.13710757 Phases=3 Bus1=60092088827436954MT.1.2.3 Bus2=60091398827436856MT.1.2.3 Linecode=5281627C-3P Length=8.474 units=m

New Line.13317342 Phases=3 Bus1=60083411827424917MT.1.2.3 Bus2=60089125827422124MT.1.2.3 Linecode=5281628C-3 Length=63.601 units=m

New Line.16523430 Phases=3 Bus1=60100686827428873MT.1.2.3 Bus2=60100685827432334MT.1.2.3 Linecode=16512329H-3 Length=34.61 units=m

New Line.51405774 Phases=3 Bus1=60021656827381916MT.1.2.3 Bus2=60021330827381375MT.1.2.3 Linecode=16512355M-3P Length=6.316 units=m

New Line.52667625 Phases=3 Bus1=60086383827431280MT.1.2.3 Bus2=60087567827431645MT.1.2.3 Linecode=16512355M-3P Length=12.39 units=m

New Line.52448300 Phases=3 Bus1=60094530827427615MT.1.2.3 Bus2=60094432827427579MT.1.2.3 Linecode=16512355M-3P Length=1.044 units=m

New Line.17281668 Phases=3 Bus1=60084226827428701MT.1.2.3 Bus2=60084028827429828MT.1.2.3 Linecode=16512328H-3 Length=9.445 units=m

New Line.97924795 Phases=3 Bus1=60111074827447131MT.1.2.3 Bus2=60114334827447413MT.1.2.3 Linecode=45225705C-3 Length=32.722 units=m

New Line.97924715 Phases=3 Bus1=60100597827436515MT.1.2.3 Bus2=60102540827439260MT.1.2.3 Linecode=45225705C-3 Length=30.558 units=m

New Line.97924727 Phases=3 Bus1=60102540827439260MT.1.2.3 Bus2=60105125827441812MT.1.2.3 Linecode=45225705C-3 Length=36.325 units=m

New Line.97924740 Phases=3 Bus1=60105125827441812MT.1.2.3 Bus2=60107423827444327MT.1.2.3 Linecode=45225705C-3 Length=34.068 units=m

New Line.97924752 Phases=3 Bus1=60107423827444327MT.1.2.3 Bus2=60109417827446700MT.1.2.3 Linecode=45225705C-3 Length=30.995 units=m

New Line.97924774 Phases=3 Bus1=60109417827446700MT.1.2.3 Bus2=60111074827447131MT.1.2.3 Linecode=45225705C-3 Length=17.121 units=m

New Line.13528538 Phases=3 Bus1=59925899827576178MT.1.2.3 Bus2=59929497827577680MT.1.2.3 Linecode=5281632C-3 Length=38.989 units=m

New Line.13526391 Phases=3 Bus1=59964875827501844MT.1.2.3 Bus2=59967482827500048MT.1.2.3 Linecode=16512328H-3 Length=31.658 units=m

New Line.52332265 Phases=3 Bus1=60054536827370916MT.1.2.3 Bus2=60054455827371036MT.1.2.3 Linecode=16512355M-3P Length=1.448 units=m

New Line.52333846 Phases=3 Bus1=60091398827436856MT.1.2.3 Bus2=60091571827436469MT.1.2.3 Linecode=16512355M-3P Length=4.239 units=m

New Line.53333681 Phases=3 Bus1=60077864827460034MT.1.2.3 Bus2=60078017827459632MT.1.2.3 Linecode=16512355M-3P Length=4.301 units=m

New Line.15901902 Phases=3 Bus1=59997582827482082MT.1.2.3 Bus2=60002605827479504MT.1.2.3 Linecode=16512328H-3 Length=56.459 units=m

New Line.16133321 Phases=3 Bus1=60035552827379557MT.1.2.3 Bus2=60033138827379304MT.1.2.3 Linecode=16512328H-3 Length=24.272 units=m

New Line.16133322 Phases=3 Bus1=60040736827380109MT.1.2.3 Bus2=60035552827379557MT.1.2.3 Linecode=16512328H-3 Length=52.133 units=m

New Line.16133323 Phases=3 Bus1=60049410827381132MT.1.2.3 Bus2=60045891827381001MT.1.2.3 Linecode=16512328H-3 Length=35.214 units=m

New Line.16133324 Phases=3 Bus1=60053307827381562MT.1.2.3 Bus2=60049410827381132MT.1.2.3 Linecode=16512328H-3 Length=39.207 units=m

New Line.16133325 Phases=3 Bus1=60053654827366285MT.1.2.3 Bus2=60051318827363145MT.1.2.3 Linecode=16512329H-3 Length=39.136 units=m

New Line.16133326 Phases=3 Bus1=60063945827366810MT.1.2.3 Bus2=60066338827364489MT.1.2.3 Linecode=16512329H-3 Length=33.337 units=m

New Line.16133327 Phases=3 Bus1=60058651827370743MT.1.2.3 Bus2=60060632827368350MT.1.2.3 Linecode=16512329H-3 Length=31.066 units=m

New Line.16133328 Phases=3 Bus1=60068793827365024MT.1.2.3 Bus2=60071624827367894MT.1.2.3 Linecode=16512329H-3 Length=40.313 units=m

New Line.16133329 Phases=3 Bus1=60056570827382130MT.1.2.3 Bus2=60053307827381562MT.1.2.3 Linecode=16512328H-3 Length=33.121 units=m

New Line.16133330 Phases=3 Bus1=60080084827385012MT.1.2.3 Bus2=60083136827385342MT.1.2.3 Linecode=16512328H-3 Length=30.698 units=m

New Line.16163312 Phases=3 Bus1=60102959827481250MT.1.2.3 Bus2=60103884827484076MT.1.2.3 Linecode=16512328H-3 Length=29.735 units=m

New Line.14108433 Phases=3 Bus1=60079838827392258MT.1.2.3 Bus2=60078998827391454MT.1.2.3 Linecode=16512328H-3 Length=11.628 units=m

New Line.14108434 Phases=3 Bus1=60078998827391454MT.1.2.3 Bus2=60077741827390225MT.1.2.3 Linecode=16512328H-3 Length=17.58 units=m

New Line.16163313 Phases=3 Bus1=60101245827485678MT.1.2.3 Bus2=60097708827487586MT.1.2.3 Linecode=16512329H-3 Length=41.687 units=m

New Line.16163314 Phases=3 Bus1=60108819827481313MT.1.2.3 Bus2=60111602827479738MT.1.2.3 Linecode=16512329H-3 Length=31.978 units=m

New Line.16163315 Phases=3 Bus1=60102347827475320MT.1.2.3 Bus2=60105604827473485MT.1.2.3 Linecode=16512329H-3 Length=38.888 units=m

New Line.16163316 Phases=3 Bus1=60094369827469673MT.1.2.3 Bus2=60095539827470727MT.1.2.3 Linecode=16512328H-3 Length=15.747 units=m

New Line.16163317 Phases=3 Bus1=60092153827472561MT.1.2.3 Bus2=60089247827474206MT.1.2.3 Linecode=16512329H-3 Length=34.897 units=m

New Line.16163318 Phases=3 Bus1=60097486827469485MT.1.2.3 Bus2=60100536827467573MT.1.2.3 Linecode=16512329H-3 Length=37.499 units=m

New Line.16163319 Phases=3 Bus1=60082349827441677MT.1.2.3 Bus2=60081295827445811MT.1.2.3 Linecode=16512328H-3 Length=42.662 units=m

New Line.16163320 Phases=3 Bus1=60094915827428453MT.1.2.3 Bus2=60097856827426515MT.1.2.3 Linecode=16512329H-3 Length=35.221 units=m

New Line.16163099 Phases=3 Bus1=60104791827465390MT.1.2.3 Bus2=60108365827463501MT.1.2.3 Linecode=16512329H-3 Length=40.425 units=m

New Line.16163100 Phases=3 Bus1=60089247827474206MT.1.2.3 Bus2=60085617827476297MT.1.2.3 Linecode=16512329H-3 Length=41.892 units=m

New Line.16163101 Phases=3 Bus1=60091341827467690MT.1.2.3 Bus2=60094369827469673MT.1.2.3 Linecode=16512328H-3 Length=36.195 units=m

New Line.16163102 Phases=3 Bus1=60083664827437799MT.1.2.3 Bus2=60082349827441677MT.1.2.3 Linecode=16512328H-3 Length=40.949 units=m

New Line.16133377 Phases=3 Bus1=60083136827385342MT.1.2.3 Bus2=60086064827385303MT.1.2.3 Linecode=16512328H-3 Length=29.283 units=m

New Line.16133378 Phases=3 Bus1=60082763827394427MT.1.2.3 Bus2=60079838827392258MT.1.2.3 Linecode=16512328H-3 Length=36.415 units=m

New Line.16133379 Phases=3 Bus1=60084926827396671MT.1.2.3 Bus2=60082763827394427MT.1.2.3 Linecode=16512328H-3 Length=31.167 units=m

New Line.16133380 Phases=3 Bus1=60089164827401764MT.1.2.3 Bus2=60087307827399129MT.1.2.3 Linecode=16512328H-3 Length=32.236 units=m

New Line.16133381 Phases=3 Bus1=60091861827403890MT.1.2.3 Bus2=60089164827401764MT.1.2.3 Linecode=16512328H-3 Length=34.342 units=m

New Line.16133382 Phases=3 Bus1=60094121827406499MT.1.2.3 Bus2=60091861827403890MT.1.2.3 Linecode=16512328H-3 Length=34.517 units=m

New Line.16133383 Phases=3 Bus1=60096228827409542MT.1.2.3 Bus2=60094121827406499MT.1.2.3 Linecode=16512328H-3 Length=37.013 units=m

New Line.16133384 Phases=3 Bus1=60098904827412418MT.1.2.3 Bus2=60096228827409542MT.1.2.3 Linecode=16512328H-3 Length=39.284 units=m

New Line.16133385 Phases=3 Bus1=60106993827420609MT.1.2.3 Bus2=60109351827423248MT.1.2.3 Linecode=16512328H-3 Length=35.39 units=m

New Line.16133386 Phases=3 Bus1=60109351827423248MT.1.2.3 Bus2=60111319827425766MT.1.2.3 Linecode=16512328H-3 Length=31.958 units=m

New Line.16133387 Phases=3 Bus1=60087453827426296MT.1.2.3 Bus2=60090803827424263MT.1.2.3 Linecode=16512328H-3 Length=39.186 units=m

New Line.16133388 Phases=3 Bus1=60090803827424263MT.1.2.3 Bus2=60094393827422056MT.1.2.3 Linecode=16512328H-3 Length=42.141 units=m

New Line.16133389 Phases=3 Bus1=60053602827447306MT.1.2.3 Bus2=60057700827444903MT.1.2.3 Linecode=16512328H-3 Length=47.506 units=m

New Line.16133390 Phases=3 Bus1=60057700827444903MT.1.2.3 Bus2=60061028827442507MT.1.2.3 Linecode=16512328H-3 Length=41.008 units=m

New Line.16133391 Phases=3 Bus1=60013044827472505MT.1.2.3 Bus2=60016213827470822MT.1.2.3 Linecode=16512328H-3 Length=35.882 units=m

New Line.16133392 Phases=3 Bus1=60010925827473799MT.1.2.3 Bus2=60013044827472505MT.1.2.3 Linecode=16512328H-3 Length=24.829 units=m

New Line.16133393 Phases=3 Bus1=59988240827487705MT.1.2.3 Bus2=59992727827485061MT.1.2.3 Linecode=16512328H-3 Length=52.081 units=m

New Line.16133394 Phases=3 Bus1=59979165827493300MT.1.2.3 Bus2=59982124827491743MT.1.2.3 Linecode=16512328H-3 Length=33.436 units=m

New Line.16163088 Phases=3 Bus1=60106442827493719MT.1.2.3 Bus2=60106444827496559MT.1.2.3 Linecode=16512328H-3 Length=28.4 units=m

New Line.16163089 Phases=3 Bus1=60104871827488833MT.1.2.3 Bus2=60106442827493719MT.1.2.3 Linecode=16512328H-3 Length=51.324 units=m

New Line.16163090 Phases=3 Bus1=60093782827489811MT.1.2.3 Bus2=60090101827491917MT.1.2.3 Linecode=16512329H-3 Length=42.409 units=m

New Line.16163091 Phases=3 Bus1=60097708827487586MT.1.2.3 Bus2=60093782827489811MT.1.2.3 Linecode=16512329H-3 Length=45.127 units=m

New Line.16163092 Phases=3 Bus1=60111602827479738MT.1.2.3 Bus2=60115211827477686MT.1.2.3 Linecode=16512329H-3 Length=41.516 units=m

New Line.16163093 Phases=3 Bus1=60119419827475264MT.1.2.3 Bus2=60122118827473751MT.1.2.3 Linecode=16512329H-3 Length=30.942 units=m

New Line.16163094 Phases=3 Bus1=60101841827477899MT.1.2.3 Bus2=60102959827481250MT.1.2.3 Linecode=16512328H-3 Length=35.326 units=m

New Line.16163095 Phases=3 Bus1=60096206827471609MT.1.2.3 Bus2=60100056827475626MT.1.2.3 Linecode=16512328H-3 Length=52.021 units=m

New Line.16163096 Phases=3 Bus1=60105604827473485MT.1.2.3 Bus2=60108849827471756MT.1.2.3 Linecode=16512329H-3 Length=36.769 units=m

New Line.16163097 Phases=3 Bus1=60108849827471756MT.1.2.3 Bus2=60112517827469652MT.1.2.3 Linecode=16512329H-3 Length=42.286 units=m

New Line.16163098 Phases=3 Bus1=60112517827469652MT.1.2.3 Bus2=60115933827467795MT.1.2.3 Linecode=16512329H-3 Length=38.881 units=m

New Line.16133395 Phases=3 Bus1=59970273827498384MT.1.2.3 Bus2=59972473827496969MT.1.2.3 Linecode=16512328H-3 Length=26.158 units=m

New Line.14641364 Phases=3 Bus1=60033700827460022MT.1.2.3 Bus2=60034220827465116MT.1.2.3 Linecode=5281631C-3 Length=50.149 units=m

New Line.14641365 Phases=3 Bus1=60034220827465116MT.1.2.3 Bus2=60035736827468275MT.1.2.3 Linecode=5281631C-3 Length=35.039 units=m

New Line.14641366 Phases=3 Bus1=60035736827468275MT.1.2.3 Bus2=60037264827471357MT.1.2.3 Linecode=5281631C-3 Length=34.4 units=m

New Line.14641367 Phases=3 Bus1=60037264827471357MT.1.2.3 Bus2=60039190827475731MT.1.2.3 Linecode=5281631C-3 Length=47.793 units=m

New Line.13682683 Phases=3 Bus1=60066295827361686MT.1.2.3 Bus2=60064014827359027MT.1.2.3 Linecode=5281631C-3 Length=33.53 units=m

New Line.13220931 Phases=3 Bus1=60080049827440137MT.1.2.3 Bus2=60076555827441984MT.1.2.3 Linecode=16512329H-3P Length=36.939 units=m

New Line.17365626 Phases=3 Bus1=60115211827477686MT.1.2.3 Bus2=60119419827475264MT.1.2.3 Linecode=16512329H-3 Length=48.552 units=m

New Line.17365627 Phases=3 Bus1=60089268827466103MT.1.2.3 Bus2=60091341827467690MT.1.2.3 Linecode=16512328H-3 Length=26.107 units=m

New Line.17365637 Phases=3 Bus1=59956629827533817MT.1.2.3 Bus2=59959285827533013MT.1.2.3 Linecode=16512329H-3 Length=27.75 units=m

New Line.17365638 Phases=3 Bus1=59984875827530267MT.1.2.3 Bus2=59985151827534495MT.1.2.3 Linecode=16512329H-3 Length=42.37 units=m

New Line.17365639 Phases=3 Bus1=59990047827501407MT.1.2.3 Bus2=59990291827498460MT.1.2.3 Linecode=16512329H-3 Length=29.571 units=m

New Line.13526171 Phases=3 Bus1=59961790827503998MT.1.2.3 Bus2=59964875827501844MT.1.2.3 Linecode=16512328H-3 Length=37.626 units=m

New Line.13526173 Phases=3 Bus1=59921934827574252MT.1.2.3 Bus2=59925899827576178MT.1.2.3 Linecode=5281632C-3 Length=44.08 units=m

New Line.13526175 Phases=3 Bus1=59929497827577680MT.1.2.3 Bus2=59930974827578222MT.1.2.3 Linecode=5281632C-3 Length=15.733 units=m

New Line.13528543 Phases=3 Bus1=59931786827578488MT.1.2.3 Bus2=59933029827578908MT.1.2.3 Linecode=5281632C-3 Length=13.12 units=m

New Line.12705137 Phases=3 Bus1=60077450827432357MT.1.2.3 Bus2=60081041827430354MT.1.2.3 Linecode=16512328H-3 Length=41.118 units=m

New Line.18453253 Phases=3 Bus1=60105830827482912MT.1.2.3 Bus2=60107089827482340MT.1.2.3 Linecode=16512329H-3 Length=15.332 units=m

New Line.18453254 Phases=3 Bus1=60107089827482340MT.1.2.3 Bus2=60108819827481313MT.1.2.3 Linecode=16512329H-3 Length=20.119 units=m

New Line.18453255 Phases=3 Bus1=60107128827482485MT.1.2.3 Bus2=60107505827483872MT.1.2.3 Linecode=16512329H-3 Length=15.875 units=m

New Line.14050298 Phases=3 Bus1=60103007827494178MT.1.2.3 Bus2=60099633827496222MT.1.2.3 Linecode=5281628C-3 Length=40.947 units=m

New Line.15942805 Phases=3 Bus1=60040076827455752MT.1.2.3 Bus2=60043727827453719MT.1.2.3 Linecode=16512328H-3 Length=41.789 units=m

New Line.17303250 Phases=3 Bus1=60053300827374853MT.1.2.3 Bus2=60056186827372629MT.1.2.3 Linecode=16512329H-3 Length=36.435 units=m

New Line.17303251 Phases=3 Bus1=60047198827379328MT.1.2.3 Bus2=60050242827377090MT.1.2.3 Linecode=16512329H-3 Length=37.782 units=m

New Line.17303252 Phases=3 Bus1=60050242827377090MT.1.2.3 Bus2=60053300827374853MT.1.2.3 Linecode=16512329H-3 Length=37.889 units=m

New Line.123980670 Phases=3 Bus1=59950158827535699MT.1.2.3 Bus2=59947568827536489MT.1.2.3 Linecode=16512380H-3 Length=28.603 units=m

New Line.123980679 Phases=3 Bus1=59947568827536489MT.1.2.3 Bus2=59944985827537388MT.1.2.3 Linecode=16512380H-3 Length=27.35 units=m

New Line.123980687 Phases=3 Bus1=59944985827537388MT.1.2.3 Bus2=59941805827538335MT.1.2.3 Linecode=16512380H-3 Length=33.18 units=m

New Line.123980695 Phases=3 Bus1=59941805827538335MT.1.2.3 Bus2=59938672827539499MT.1.2.3 Linecode=16512380H-3 Length=33.422 units=m

New Line.123980710 Phases=3 Bus1=59950966827535631MT.1.2.3 Bus2=59950304827535655MT.1.2.3 Linecode=16512380H-3 Length=6.624 units=m

New Line.123980717 Phases=3 Bus1=59950966827535631MT.1.2.3 Bus2=59952750827534848MT.1.2.3 Linecode=16512380H-3 Length=19.483 units=m

New Line.123980734 Phases=3 Bus1=59962442827532210MT.1.2.3 Bus2=59962723827533250MT.1.2.3 Linecode=16512380H-3 Length=10.773 units=m

New Line.123980742 Phases=3 Bus1=59962442827532210MT.1.2.3 Bus2=59961890827531006MT.1.2.3 Linecode=16512380H-3 Length=13.245 units=m

New Line.123980749 Phases=3 Bus1=59961850827530859MT.1.2.3 Bus2=59961035827527778MT.1.2.3 Linecode=16512380H-3 Length=33.393 units=m

New Line.124169600 Phases=3 Bus1=60107505827483872MT.1.2.3 Bus2=60106254827484156MT.1.2.3 Linecode=16512355M-3P Length=12.828 units=m

New Line.17282898 Phases=3 Bus1=60084501827433760MT.1.2.3 Bus2=60085072827432342MT.1.2.3 Linecode=16512329H-3 Length=14.615 units=m

New Line.17282899 Phases=3 Bus1=60101623827424766MT.1.2.3 Bus2=60100686827428873MT.1.2.3 Linecode=16512329H-3 Length=39.626 units=m

New Line.17108574 Phases=3 Bus1=59937290827575574MT.1.2.3 Bus2=59939806827574082MT.1.2.3 Linecode=16512328H-3 Length=29.251 units=m

New Line.17303497 Phases=3 Bus1=60068868827361663MT.1.2.3 Bus2=60070917827359355MT.1.2.3 Linecode=16512329H-3 Length=27.227 units=m

New Line.13124141 Phases=3 Bus1=60081112827460483MT.1.2.3 Bus2=60079346827458364MT.1.2.3 Linecode=5281628C-3 Length=27.584 units=m

New Line.13124142 Phases=3 Bus1=60086927827466612MT.1.2.3 Bus2=60084368827464517MT.1.2.3 Linecode=5281628C-3 Length=33.072 units=m

New Line.13124143 Phases=3 Bus1=60094685827472912MT.1.2.3 Bus2=60091547827470344MT.1.2.3 Linecode=5281628C-3 Length=40.548 units=m

New Line.13124144 Phases=3 Bus1=60101304827482068MT.1.2.3 Bus2=60099051827478616MT.1.2.3 Linecode=5281628C-3 Length=41.222 units=m

New Line.13124138 Phases=3 Bus1=60102541827486479MT.1.2.3 Bus2=60102043827484084MT.1.2.3 Linecode=5281628C-3 Length=24.462 units=m

New Line.16814193 Phases=3 Bus1=60022088827378040MT.1.2.3 Bus2=60018251827377568MT.1.2.3 Linecode=16512328H-3 Length=38.659 units=m

New Line.16814194 Phases=3 Bus1=60025149827378869MT.1.2.3 Bus2=60022088827378040MT.1.2.3 Linecode=16512328H-3 Length=31.713 units=m

New Line.16814195 Phases=3 Bus1=60022071827378189MT.1.2.3 Bus2=60021656827381916MT.1.2.3 Linecode=16512329H-3P Length=39.0 units=m

New Line.13124135 Phases=3 Bus1=60084368827464517MT.1.2.3 Bus2=60082422827462362MT.1.2.3 Linecode=5281628C-3 Length=25.83 units=m

New Line.13124136 Phases=3 Bus1=60091547827470344MT.1.2.3 Bus2=60089672827468838MT.1.2.3 Linecode=5281628C-3 Length=24.049 units=m

New Line.13124137 Phases=3 Bus1=60099051827478616MT.1.2.3 Bus2=60097433827475796MT.1.2.3 Linecode=5281628C-3 Length=32.512 units=m

New Line.18579973 Phases=3 Bus1=60090644827482038MT.1.2.3 Bus2=60086927827484218MT.1.2.3 Linecode=16512329H-3 Length=43.091 units=m

New Line.18579974 Phases=3 Bus1=60094004827480224MT.1.2.3 Bus2=60090644827482038MT.1.2.3 Linecode=16512329H-3 Length=38.184 units=m

New Line.13123872 Phases=3 Bus1=60103708827492789MT.1.2.3 Bus2=60103102827490228MT.1.2.3 Linecode=5281628C-3 Length=26.317 units=m

New Line.13123873 Phases=3 Bus1=60079949827442163MT.1.2.3 Bus2=60080761827438537MT.1.2.3 Linecode=5281628C-3 Length=37.158 units=m

New Line.13123874 Phases=3 Bus1=60078166827452359MT.1.2.3 Bus2=60078376827449677MT.1.2.3 Linecode=5281628C-3 Length=23.325 units=m

New Line.13123879 Phases=3 Bus1=60103102827490228MT.1.2.3 Bus2=60102541827486479MT.1.2.3 Linecode=5281628C-3 Length=37.907 units=m

New Line.13123880 Phases=3 Bus1=60080426827435451MT.1.2.3 Bus2=60079987827432507MT.1.2.3 Linecode=5281628C-3 Length=29.766 units=m

New Line.13123881 Phases=3 Bus1=60079025827446050MT.1.2.3 Bus2=60079949827442163MT.1.2.3 Linecode=5281628C-3 Length=39.953 units=m

New Line.13123882 Phases=3 Bus1=60078392827455346MT.1.2.3 Bus2=60078166827452359MT.1.2.3 Linecode=5281628C-3 Length=29.955 units=m

...